Conversion/opendss_conversion/dss_files/net_4_Urban_CRE21/04_MV_Lines.dss
New Line.mv_f0_l0 bus1=mv_f0_n157.1.2.3 bus2=mv_f0_n235.1.2.3 phases=3 length=0.052207 units=km linecode=lc_183-3ph enabled=true
New Line.mv_f0_l1 bus1=mv_f0_n312.1.2.3 bus2=mv_f0_n224.1.2.3 phases=3 length=0.034327 units=km linecode=lc_2-3ph enabled=true
New Line.mv_f0_l2 bus1=mv_f0_n568.1.2.3 bus2=mv_f0_n525.1.2.3 phases=3 length=0.114448 units=km linecode=lc_183-3ph enabled=true
New Line.mv_f0_l3 bus1=mv_f0_n346.1.2.3 bus2=mv_f0_n505.1.2.3 phases=3 length=0.046135 units=km linecode=lc_2-3ph enabled=true
New Line.mv_f0_l4 bus1=mv_f0_n351.1.2.3 bus2=mv_f0_n83.1.2.3 phases=3 length=0.004251 units=km linecode=lc_2-3ph enabled=true
New Line.mv_f0_l5 bus1=mv_f0_n83.1.2.3 bus2=mv_f0_n341.1.2.3 phases=3 length=0.058391 units=km linecode=lc_2-3ph enabled=true
New Line.mv_f0_l6 bus1=mv_f0_n40.1.2.3 bus2=mv_f0_n592.1.2.3 phases=3 length=0.282317 units=km linecode=lc_2-3ph enabled=true
New Line.mv_f0_l7 bus1=mv_f0_n587.1.2.3 bus2=mv_f0_n8.1.2.3 phases=3 length=0.0309 units=km linecode=lc_183-3ph enabled=true
New Line.mv_f0_l8 bus1=mv_f0_n185.1.2.3 bus2=mv_f0_n421.1.2.3 phases=3 length=0.000501 units=km linecode=lc_183-3ph enabled=true
New Line.mv_f0_l9 bus1=mv_f0_n517.1.2.3 bus2=mv_f0_n506.1.2.3 phases=3 length=0.110598 units=km linecode=lc_183-3ph enabled=true
New Line.mv_f0_l10 bus1=mv_f0_n535.1.2.3 bus2=mv_f0_n403.1.2.3 phases=3 length=0.055253 units=km linecode=lc_2-3ph enabled=true
New Line.mv_f0_l11 bus1=mv_f0_n184.1.2.3 bus2=mv_f0_n440.1.2.3 phases=3 length=0.000253 units=km linecode=lc_2-3ph enabled=true
New Line.mv_f0_l12 bus1=mv_f0_n124.1.2.3 bus2=mv_f0_n113.1.2.3 phases=3 length=0.02749 units=km linecode=lc_2-3ph enabled=true
New Line.mv_f0_l13 bus1=mv_f0_n191.1.2.3 bus2=mv_f0_n437.1.2.3 phases=3 length=0.040404 units=km linecode=lc_183-3ph enabled=true
New Line.mv_f0_l14 bus1=mv_f0_n523.1.2.3 bus2=mv_f0_n367.1.2.3 phases=3 length=0.01599 units=km linecode=lc_2-3ph enabled=true
New Line.mv_f0_l15 bus1=mv_f0_n235.1.2.3 bus2=mv_f0_n348.1.2.3 phases=3 length=0.046136 units=km linecode=lc_183-3ph enabled=true
New Line.mv_f0_l16 bus1=mv_f0_n348.1.2.3 bus2=mv_f0_n177.1.2.3 phases=3 length=0.041069 units=km linecode=lc_183-3ph enabled=true
New Line.mv_f0_l17 bus1=mv_f0_n100.1.2.3 bus2=mv_f0_n40.1.2.3 phases=3 length=0.060923 units=km linecode=lc_183-3ph enabled=true
New Line.mv_f0_l18 bus1=mv_f0_n546.1.2.3 bus2=mv_f0_n538.1.2.3 phases=3 length=0.099924 units=km linecode=lc_183-3ph enabled=true
New Line.mv_f0_l19 bus1=mv_f0_n496.1.2.3 bus2=mv_f0_n401.1.2.3 phases=3 length=0.000377 units=km linecode=lc_2-3ph enabled=true
New Line.mv_f0_l20 bus1=mv_f0_n406.1.2.3 bus2=mv_f0_n496.1.2.3 phases=3 length=0.013783 units=km linecode=lc_2-3ph enabled=true
New Line.mv_f0_l21 bus1=mv_f0_n578.1.2.3 bus2=mv_f0_n129.1.2.3 phases=3 length=0.007932 units=km linecode=lc_2-3ph enabled=true
New Line.mv_f0_l22 bus1=mv_f0_n117.1.2.3 bus2=mv_f0_n115.1.2.3 phases=3 length=0.047596 units=km linecode=lc_168-3ph enabled=true
New Line.mv_f0_l23 bus1=mv_f0_n100.1.2.3 bus2=mv_f0_n571.1.2.3 phases=3 length=0.108468 units=km linecode=lc_183-3ph enabled=true
New Line.mv_f0_l24 bus1=mv_f0_n304.1.2.3 bus2=mv_f0_n325.1.2.3 phases=3 length=0.031069 units=km linecode=lc_2-3ph enabled=true
New Line.mv_f0_l25 bus1=mv_f0_n539.1.2.3 bus2=mv_f0_n493.1.2.3 phases=3 length=0.056156 units=km linecode=lc_2-3ph enabled=true
New Line.mv_f0_l26 bus1=mv_f0_n493.1.2.3 bus2=mv_f0_n547.1.2.3 phases=3 length=0.000629 units=km linecode=lc_2-3ph enabled=true
New Line.mv_f0_l27 bus1=mv_f0_n60.1.2.3 bus2=mv_f0_n444.1.2.3 phases=3 length=0.077541 units=km linecode=lc_2-3ph enabled=true
New Line.mv_f0_l28 bus1=mv_f0_n72.1.2.3 bus2=mv_f0_n206.1.2.3 phases=3 length=0.010157 units=km linecode=lc_2-3ph enabled=true
New Line.mv_f0_l29 bus1=mv_f0_n568.1.2.3 bus2=mv_f0_n84.1.2.3 phases=3 length=0.001011 units=km linecode=lc_46-3ph enabled=true
New Line.mv_f0_l30 bus1=mv_f0_n341.1.2.3 bus2=mv_f0_n145.1.2.3 phases=3 length=0.019749 units=km linecode=lc_2-3ph enabled=true
New Line.mv_f0_l31 bus1=mv_f0_n145.1.2.3 bus2=mv_f0_n331.1.2.3 phases=3 length=0.002448 units=km linecode=lc_2-3ph enabled=true
New Line.mv_f0_l32 bus1=mv_f0_n217.1.2.3 bus2=mv_f0_n59.1.2.3 phases=3 length=0.121406 units=km linecode=lc_2-3ph enabled=true
New Line.mv_f0_l33 bus1=mv_f0_n394.1.2.3 bus2=mv_f0_n217.1.2.3 phases=3 length=0.110716 units=km linecode=lc_2-3ph enabled=true
New Line.mv_f0_l34 bus1=mv_f0_n439.1.2.3 bus2=mv_f0_n270.1.2.3 phases=3 length=0.001003 units=km linecode=lc_168-3ph enabled=true
New Line.mv_f0_l35 bus1=mv_f0_n221.1.2.3 bus2=mv_f0_n643.1.2.3 phases=3 length=0.075078 units=km linecode=lc_44-3ph enabled=true
New Line.mv_f0_l36 bus1=mv_f0_n481.1.2.3 bus2=mv_f0_n221.1.2.3 phases=3 length=0.074055 units=km linecode=lc_44-3ph enabled=true
New Line.mv_f0_l37 bus1=mv_f0_n476.1.2.3 bus2=mv_f0_n483.1.2.3 phases=3 length=0.041887 units=km linecode=lc_2-3ph enabled=true
New Line.mv_f0_l38 bus1=mv_f0_n214.1.2.3 bus2=mv_f0_n94.1.2.3 phases=3 length=0.006003 units=km linecode=lc_2-3ph enabled=true
New Line.mv_f0_l39 bus1=mv_f0_n365.1.2.3 bus2=mv_f0_n627.1.2.3 phases=3 length=0.098349 units=km linecode=lc_183-3ph enabled=true
New Line.mv_f0_l40 bus1=mv_f0_n623.1.2.3 bus2=mv_f0_n252.1.2.3 phases=3 length=0.07072 units=km linecode=lc_93-3ph enabled=true
New Line.mv_f0_l41 bus1=mv_f0_n515.1.2.3 bus2=mv_f0_n519.1.2.3 phases=3 length=0.031411 units=km linecode=lc_2-3ph enabled=true
New Line.mv_f0_l42 bus1=mv_f0_n627.1.2.3 bus2=mv_f0_n638.1.2.3 phases=3 length=0.04807 units=km linecode=lc_183-3ph enabled=true
New Line.mv_f0_l43 bus1=mv_f0_n638.1.2.3 bus2=mv_f0_n438.1.2.3 phases=3 length=0.124431 units=km linecode=lc_183-3ph enabled=true
New Line.mv_f0_l44 bus1=mv_f0_n252.1.2.3 bus2=mv_f0_n263.1.2.3 phases=3 length=0.053132 units=km linecode=lc_93-3ph enabled=true
New Line.mv_f0_l45 bus1=mv_f0_n9.1.2.3 bus2=mv_f0_n277.1.2.3 phases=3 length=0.108987 units=km linecode=lc_168-3ph enabled=true
New Line.mv_f0_l46 bus1=mv_f0_n263.1.2.3 bus2=mv_f0_n274.1.2.3 phases=3 length=0.081305 units=km linecode=lc_93-3ph enabled=true
New Line.mv_f0_l47 bus1=mv_f0_n274.1.2.3 bus2=mv_f0_n257.1.2.3 phases=3 length=0.074854 units=km linecode=lc_93-3ph enabled=true
New Line.mv_f0_l48 bus1=mv_f0_n235.1.2.3 bus2=mv_f0_n237.1.2.3 phases=3 length=0.100901 units=km linecode=lc_183-3ph enabled=true
New Line.mv_f0_l49 bus1=mv_f0_n5.1.2.3 bus2=mv_f0_n36.1.2.3 phases=3 length=0.127645 units=km linecode=lc_183-3ph enabled=true
New Line.mv_f0_l50 bus1=mv_f0_n118.1.2.3 bus2=mv_f0_n398.1.2.3 phases=3 length=0.006014 units=km linecode=lc_2-3ph enabled=true
New Line.mv_f0_l51 bus1=mv_f0_n120.1.2.3 bus2=mv_f0_n125.1.2.3 phases=3 length=0.099644 units=km linecode=lc_2-3ph enabled=true
New Line.mv_f0_l52 bus1=mv_f0_n484.1.2.3 bus2=mv_f0_n75.1.2.3 phases=3 length=0.119777 units=km linecode=lc_183-3ph enabled=true
New Line.mv_f0_l53 bus1=mv_f0_n188.1.2.3 bus2=mv_f0_n128.1.2.3 phases=3 length=0.003393 units=km linecode=lc_2-3ph enabled=true
New Line.mv_f0_l54 bus1=mv_f0_n128.1.2.3 bus2=mv_f0_n214.1.2.3 phases=3 length=0.046874 units=km linecode=lc_2-3ph enabled=true
New Line.mv_f0_l55 bus1=mv_f0_n372.1.2.3 bus2=mv_f0_n139.1.2.3 phases=3 length=0.095278 units=km linecode=lc_183-3ph enabled=true
New Line.mv_f0_l56 bus1=mv_f0_n344.1.2.3 bus2=mv_f0_n389.1.2.3 phases=3 length=0.001345 units=km linecode=lc_183-3ph enabled=true
New Line.mv_f0_l57 bus1=mv_f0_n347.1.2.3 bus2=mv_f0_n380.1.2.3 phases=3 length=0.012107 units=km linecode=lc_2-3ph enabled=true
New Line.mv_f0_l58 bus1=mv_f0_n401.1.2.3 bus2=mv_f0_n289.1.2.3 phases=3 length=0.026886 units=km linecode=lc_2-3ph enabled=true
New Line.mv_f0_l59 bus1=mv_f0_n81.1.2.3 bus2=mv_f0_n12.1.2.3 phases=3 length=0.123864 units=km linecode=lc_183-3ph enabled=true
New Line.mv_f0_l60 bus1=mv_f0_n12.1.2.3 bus2=mv_f0_n50.1.2.3 phases=3 length=0.115305 units=km linecode=lc_183-3ph enabled=true
New Line.mv_f0_l61 bus1=mv_f0_n628.1.2.3 bus2=mv_f0_n254.1.2.3 phases=3 length=0.015068 units=km linecode=lc_2-3ph enabled=true
New Line.mv_f0_l62 bus1=mv_f0_n113.1.2.3 bus2=mv_f0_n41.1.2.3 phases=3 length=0.028033 units=km linecode=lc_2-3ph enabled=true
New Line.mv_f0_l63 bus1=mv_f0_n400.1.2.3 bus2=mv_f0_n408.1.2.3 phases=3 length=0.114315 units=km linecode=lc_183-3ph enabled=true
New Line.mv_f0_l64 bus1=mv_f0_n408.1.2.3 bus2=mv_f0_n372.1.2.3 phases=3 length=0.119695 units=km linecode=lc_183-3ph enabled=true
New Line.mv_f0_l65 bus1=mv_f0_n290.1.2.3 bus2=mv_f0_n318.1.2.3 phases=3 length=0.02658 units=km linecode=lc_183-3ph enabled=true
New Line.mv_f0_l66 bus1=mv_f0_n340.1.2.3 bus2=mv_f0_n290.1.2.3 phases=3 length=0.093491 units=km linecode=lc_183-3ph enabled=true
New Line.mv_f0_l67 bus1=mv_f0_n320.1.2.3 bus2=mv_f0_n340.1.2.3 phases=3 length=0.126404 units=km linecode=lc_183-3ph enabled=true
New Line.mv_f0_l68 bus1=mv_f0_n175.1.2.3 bus2=mv_f0_n328.1.2.3 phases=3 length=0.048177 units=km linecode=lc_2-3ph enabled=true
New Line.mv_f0_l69 bus1=mv_f0_n237.1.2.3 bus2=mv_f0_n609.1.2.3 phases=3 length=0.118371 units=km linecode=lc_183-3ph enabled=true
New Line.mv_f0_l70 bus1=mv_f0_n158.1.2.3 bus2=mv_f0_n165.1.2.3 phases=3 length=0.007748 units=km linecode=lc_2-3ph enabled=true
New Line.mv_f0_l71 bus1=mv_f0_n165.1.2.3 bus2=mv_f0_n176.1.2.3 phases=3 length=0.041994 units=km linecode=lc_2-3ph enabled=true
New Line.mv_f0_l72 bus1=mv_f0_n534.1.2.3 bus2=mv_f0_n544.1.2.3 phases=3 length=0.001487 units=km linecode=lc_2-3ph enabled=true
New Line.mv_f0_l73 bus1=mv_f0_n610.1.2.3 bus2=mv_f0_n599.1.2.3 phases=3 length=0.047567 units=km linecode=lc_2-3ph enabled=true
New Line.mv_f0_l74 bus1=mv_f0_n510.1.2.3 bus2=mv_f0_n15.1.2.3 phases=3 length=0.10498 units=km linecode=lc_2-3ph enabled=true
New Line.mv_f0_l75 bus1=mv_f0_n385.1.2.3 bus2=mv_f0_n555.1.2.3 phases=3 length=0.097376 units=km linecode=lc_183-3ph enabled=true
New Line.mv_f0_l76 bus1=mv_f0_n29.1.2.3 bus2=mv_f0_n482.1.2.3 phases=3 length=0.007001 units=km linecode=lc_2-3ph enabled=true
New Line.mv_f0_l77 bus1=mv_f0_n51.1.2.3 bus2=mv_f0_n499.1.2.3 phases=3 length=0.100123 units=km linecode=lc_183-3ph enabled=true
New Line.mv_f0_l78 bus1=mv_f0_n242.1.2.3 bus2=mv_f0_n91.1.2.3 phases=3 length=0.053107 units=km linecode=lc_2-3ph enabled=true
New Line.mv_f0_l79 bus1=mv_f0_n284.1.2.3 bus2=mv_f0_n141.1.2.3 phases=3 length=0.024096 units=km linecode=lc_2-3ph enabled=true
New Line.mv_f0_l80 bus1=mv_f0_n181.1.2.3 bus2=mv_f0_n118.1.2.3 phases=3 length=0.051984 units=km linecode=lc_2-3ph enabled=true
New Line.mv_f0_l81 bus1=mv_f0_n605.1.2.3 bus2=mv_f0_n96.1.2.3 phases=3 length=0.105134 units=km linecode=lc_183-3ph enabled=true
New Line.mv_f0_l82 bus1=mv_f0_n91.1.2.3 bus2=mv_f0_n98.1.2.3 phases=3 length=0.009479 units=km linecode=lc_2-3ph enabled=true
New Line.mv_f0_l83 bus1=mv_f0_n299.1.2.3 bus2=mv_f0_n77.1.2.3 phases=3 length=0.017402 units=km linecode=lc_2-3ph enabled=true
New Line.mv_f0_l84 bus1=mv_f0_n92.1.2.3 bus2=mv_f0_n100.1.2.3 phases=3 length=0.126241 units=km linecode=lc_183-3ph enabled=true
New Line.mv_f0_l85 bus1=mv_f0_n606.1.2.3 bus2=mv_f0_n16.1.2.3 phases=3 length=0.072374 units=km linecode=lc_2-3ph enabled=true
New Line.mv_f0_l86 bus1=mv_f0_n35.1.2.3 bus2=mv_f0_n626.1.2.3 phases=3 length=0.000752 units=km linecode=lc_2-3ph enabled=true
New Line.mv_f0_l87 bus1=mv_f0_n98.1.2.3 bus2=mv_f0_n103.1.2.3 phases=3 length=0.060807 units=km linecode=lc_2-3ph enabled=true
New Line.mv_f0_l88 bus1=mv_f0_n103.1.2.3 bus2=mv_f0_n534.1.2.3 phases=3 length=0.056249 units=km linecode=lc_2-3ph enabled=true
New Line.mv_f0_l89 bus1=mv_f0_n448.1.2.3 bus2=mv_f0_n205.1.2.3 phases=3 length=0.060604 units=km linecode=lc_2-3ph enabled=true
New Line.mv_f0_l90 bus1=mv_f0_n547.1.2.3 bus2=mv_f0_n542.1.2.3 phases=3 length=0.026733 units=km linecode=lc_2-3ph enabled=true
New Line.mv_f0_l91 bus1=mv_f0_n417.1.2.3 bus2=mv_f0_n423.1.2.3 phases=3 length=0.02878 units=km linecode=lc_2-3ph enabled=true
New Line.mv_f0_l92 bus1=mv_f0_n205.1.2.3 bus2=mv_f0_n213.1.2.3 phases=3 length=0.030135 units=km linecode=lc_2-3ph enabled=true
New Line.mv_f0_l93 bus1=mv_f0_n498.1.2.3 bus2=mv_f0_n500.1.2.3 phases=3 length=0.090299 units=km linecode=lc_2-3ph enabled=true
New Line.mv_f0_l94 bus1=mv_f0_n53.1.2.3 bus2=mv_f0_n436.1.2.3 phases=3 length=0.075278 units=km linecode=lc_183-3ph enabled=true
New Line.mv_f0_l95 bus1=mv_f0_n437.1.2.3 bus2=mv_f0_n53.1.2.3 phases=3 length=0.103351 units=km linecode=lc_183-3ph enabled=true
New Line.mv_f0_l96 bus1=mv_f0_n582.1.2.3 bus2=mv_f0_n394.1.2.3 phases=3 length=0.023692 units=km linecode=lc_2-3ph enabled=true
New Line.mv_f0_l97 bus1=mv_f0_n213.1.2.3 bus2=mv_f0_n222.1.2.3 phases=3 length=0.043531 units=km linecode=lc_2-3ph enabled=true
New Line.mv_f0_l98 bus1=mv_f0_n152.1.2.3 bus2=mv_f0_n226.1.2.3 phases=3 length=0.005055 units=km linecode=lc_2-3ph enabled=true
New Line.mv_f0_l99 bus1=mv_f0_n622.1.2.3 bus2=mv_f0_n4.1.2.3 phases=3 length=0.070122 units=km linecode=lc_2-3ph enabled=true
New Line.mv_f0_l100 bus1=mv_f0_n427.1.2.3 bus2=mv_f0_n412.1.2.3 phases=3 length=0.203585 units=km linecode=lc_46-3ph enabled=true
New Line.mv_f0_l101 bus1=mv_f0_n231.1.2.3 bus2=mv_f0_n416.1.2.3 phases=3 length=0.143095 units=km linecode=lc_2-3ph enabled=true
New Line.mv_f0_l102 bus1=mv_f0_n222.1.2.3 bus2=mv_f0_n231.1.2.3 phases=3 length=0.061552 units=km linecode=lc_2-3ph enabled=true
New Line.mv_f0_l103 bus1=mv_f0_n87.1.2.3 bus2=mv_f0_n70.1.2.3 phases=3 length=0.038254 units=km linecode=lc_2-3ph enabled=true
New Line.mv_f0_l104 bus1=mv_f0_n134.1.2.3 bus2=mv_f0_n160.1.2.3 phases=3 length=0.172066 units=km linecode=lc_46-3ph enabled=true
New Line.mv_f0_l105 bus1=mv_f0_n170.1.2.3 bus2=mv_f0_n133.1.2.3 phases=3 length=0.272399 units=km linecode=lc_2-3ph enabled=true
New Line.mv_f0_l106 bus1=mv_f0_n453.1.2.3 bus2=mv_f0_n122.1.2.3 phases=3 length=0.088246 units=km linecode=lc_25-3ph enabled=true
New Line.mv_f0_l107 bus1=mv_f0_n71.1.2.3 bus2=mv_f0_n236.1.2.3 phases=3 length=0.087316 units=km linecode=lc_183-3ph enabled=true
New Line.mv_f0_l108 bus1=mv_f0_n325.1.2.3 bus2=mv_f0_n351.1.2.3 phases=3 length=0.057345 units=km linecode=lc_2-3ph enabled=true
New Line.mv_f0_l109 bus1=mv_f0_n579.1.2.3 bus2=mv_f0_n576.1.2.3 phases=3 length=0.000999 units=km linecode=lc_44-3ph enabled=true
New Line.mv_f0_l110 bus1=mv_f0_n441.1.2.3 bus2=mv_f0_n415.1.2.3 phases=3 length=0.065312 units=km linecode=lc_170-3ph enabled=true
New Line.mv_f0_l111 bus1=mv_f0_n415.1.2.3 bus2=mv_f0_n267.1.2.3 phases=3 length=0.104662 units=km linecode=lc_170-3ph enabled=true
New Line.mv_f0_l112 bus1=mv_f0_n8.1.2.3 bus2=mv_f0_n243.1.2.3 phases=3 length=0.055369 units=km linecode=lc_2-3ph enabled=true
New Line.mv_f0_l113 bus1=mv_f0_n367.1.2.3 bus2=mv_f0_n350.1.2.3 phases=3 length=0.044578 units=km linecode=lc_2-3ph enabled=true
New Line.mv_f0_l114 bus1=mv_f0_n574.1.2.3 bus2=mv_f0_n272.1.2.3 phases=3 length=0.097377 units=km linecode=lc_26-3ph enabled=true
New Line.mv_f0_l115 bus1=mv_f0_n57.1.2.3 bus2=mv_f0_n202.1.2.3 phases=3 length=0.002249 units=km linecode=lc_2-3ph enabled=true
New Line.mv_f0_l116 bus1=mv_f0_n86.1.2.3 bus2=mv_f0_n71.1.2.3 phases=3 length=0.096962 units=km linecode=lc_183-3ph enabled=true
New Line.mv_f0_l117 bus1=mv_f0_n79.1.2.3 bus2=mv_f0_n86.1.2.3 phases=3 length=0.086074 units=km linecode=lc_183-3ph enabled=true
New Line.mv_f0_l118 bus1=mv_f0_n251.1.2.3 bus2=mv_f0_n458.1.2.3 phases=3 length=0.060509 units=km linecode=lc_2-3ph enabled=true
New Line.mv_f0_l119 bus1=mv_f0_n190.1.2.3 bus2=mv_f0_n171.1.2.3 phases=3 length=0.049822 units=km linecode=lc_2-3ph enabled=true
New Line.mv_f0_l120 bus1=mv_f0_n365.1.2.3 bus2=mv_f0_n564.1.2.3 phases=3 length=0.000958 units=km linecode=lc_183-3ph enabled=true
New Line.mv_f0_l121 bus1=mv_f0_n255.1.2.3 bus2=mv_f0_n251.1.2.3 phases=3 length=0.029025 units=km linecode=lc_2-3ph enabled=true
New Line.mv_f0_l122 bus1=mv_f0_n260.1.2.3 bus2=mv_f0_n255.1.2.3 phases=3 length=0.042906 units=km linecode=lc_2-3ph enabled=true
New Line.mv_f0_l123 bus1=mv_f0_n227.1.2.3 bus2=mv_f0_n399.1.2.3 phases=3 length=0.110531 units=km linecode=lc_183-3ph enabled=true
New Line.mv_f0_l124 bus1=mv_f0_n634.1.2.3 bus2=mv_f0_n283.1.2.3 phases=3 length=0.031312 units=km linecode=lc_2-3ph enabled=true
New Line.mv_f0_l125 bus1=mv_f0_n302.1.2.3 bus2=mv_f0_n634.1.2.3 phases=3 length=0.000505 units=km linecode=lc_2-3ph enabled=true
New Line.mv_f0_l126 bus1=mv_f0_n243.1.2.3 bus2=mv_f0_n269.1.2.3 phases=3 length=0.133437 units=km linecode=lc_2-3ph enabled=true
New Line.mv_f0_l127 bus1=mv_f0_n269.1.2.3 bus2=mv_f0_n260.1.2.3 phases=3 length=0.061364 units=km linecode=lc_2-3ph enabled=true
New Line.mv_f0_l128 bus1=mv_f0_n94.1.2.3 bus2=mv_f0_n72.1.2.3 phases=3 length=0.041939 units=km linecode=lc_2-3ph enabled=true
New Line.mv_f0_l129 bus1=mv_f0_n460.1.2.3 bus2=mv_f0_n455.1.2.3 phases=3 length=0.035922 units=km linecode=lc_2-3ph enabled=true
New Line.mv_f0_l130 bus1=mv_f0_n440.1.2.3 bus2=mv_f0_n39.1.2.3 phases=3 length=0.043867 units=km linecode=lc_2-3ph enabled=true
New Line.mv_f0_l131 bus1=mv_f0_n239.1.2.3 bus2=mv_f0_n57.1.2.3 phases=3 length=0.053047 units=km linecode=lc_2-3ph enabled=true
New Line.mv_f0_l132 bus1=mv_f0_n593.1.2.3 bus2=mv_f0_n32.1.2.3 phases=3 length=0.020941 units=km linecode=lc_2-3ph enabled=true
New Line.mv_f0_l133 bus1=mv_f0_n185.1.2.3 bus2=mv_f0_n107.1.2.3 phases=3 length=0.001248 units=km linecode=lc_2-3ph enabled=true
New Line.mv_f0_l134 bus1=mv_f0_n146.1.2.3 bus2=mv_f0_n185.1.2.3 phases=3 length=0.000999 units=km linecode=lc_2-3ph enabled=true
New Line.mv_f0_l135 bus1=mv_f0_n488.1.2.3 bus2=mv_f0_n117.1.2.3 phases=3 length=0.119887 units=km linecode=lc_183-3ph enabled=true
New Line.mv_f0_l136 bus1=mv_f0_n293.1.2.3 bus2=mv_f0_n539.1.2.3 phases=3 length=0.089277 units=km linecode=lc_2-3ph enabled=true
New Line.mv_f0_l137 bus1=mv_f0_n377.1.2.3 bus2=mv_f0_n146.1.2.3 phases=3 length=0.001004 units=km linecode=lc_2-3ph enabled=true
New Line.mv_f0_l138 bus1=mv_f0_n111.1.2.3 bus2=mv_f0_n377.1.2.3 phases=3 length=0.000723 units=km linecode=lc_2-3ph enabled=true
New Line.mv_f0_l139 bus1=mv_f0_n467.1.2.3 bus2=mv_f0_n473.1.2.3 phases=3 length=0.013881 units=km linecode=lc_2-3ph enabled=true
New Line.mv_f0_l140 bus1=mv_f0_n159.1.2.3 bus2=mv_f0_n151.1.2.3 phases=3 length=0.114319 units=km linecode=lc_2-3ph enabled=true
New Line.mv_f0_l141 bus1=mv_f0_n70.1.2.3 bus2=mv_f0_n159.1.2.3 phases=3 length=0.01216 units=km linecode=lc_2-3ph enabled=true
New Line.mv_f0_l142 bus1=mv_f0_n140.1.2.3 bus2=mv_f0_n424.1.2.3 phases=3 length=0.006148 units=km linecode=lc_2-3ph enabled=true
New Line.mv_f0_l143 bus1=mv_f0_n166.1.2.3 bus2=mv_f0_n149.1.2.3 phases=3 length=0.088063 units=km linecode=lc_168-3ph enabled=true
New Line.mv_f0_l144 bus1=mv_f0_n636.1.2.3 bus2=mv_f0_n166.1.2.3 phases=3 length=0.079538 units=km linecode=lc_168-3ph enabled=true
New Line.mv_f0_l145 bus1=mv_f0_n21.1.2.3 bus2=mv_f0_n615.1.2.3 phases=3 length=0.001004 units=km linecode=lc_168-3ph enabled=true
New Line.mv_f0_l146 bus1=mv_f0_n505.1.2.3 bus2=mv_f0_n152.1.2.3 phases=3 length=0.02332 units=km linecode=lc_2-3ph enabled=true
New Line.mv_f0_l147 bus1=mv_f0_n538.1.2.3 bus2=mv_f0_n529.1.2.3 phases=3 length=0.109829 units=km linecode=lc_183-3ph enabled=true
New Line.mv_f0_l148 bus1=mv_f0_n480.1.2.3 bus2=mv_f0_n460.1.2.3 phases=3 length=0.113819 units=km linecode=lc_2-3ph enabled=true
New Line.mv_f0_l149 bus1=mv_f0_n306.1.2.3 bus2=mv_f0_n392.1.2.3 phases=3 length=0.054762 units=km linecode=lc_2-3ph enabled=true
New Line.mv_f0_l150 bus1=mv_f0_n173.1.2.3 bus2=mv_f0_n183.1.2.3 phases=3 length=0.001046 units=km linecode=lc_2-3ph enabled=true
New Line.mv_f0_l151 bus1=mv_f0_n80.1.2.3 bus2=mv_f0_n186.1.2.3 phases=3 length=0.038454 units=km linecode=lc_2-3ph enabled=true
New Line.mv_f0_l152 bus1=mv_f0_n619.1.2.3 bus2=mv_f0_n82.1.2.3 phases=3 length=0.264842 units=km linecode=lc_2-3ph enabled=true
New Line.mv_f0_l153 bus1=mv_f0_n82.1.2.3 bus2=mv_f0_n68.1.2.3 phases=3 length=0.21881 units=km linecode=lc_2-3ph enabled=true
New Line.mv_f0_l154 bus1=mv_f0_n230.1.2.3 bus2=mv_f0_n315.1.2.3 phases=3 length=0.053649 units=km linecode=lc_2-3ph enabled=true
New Line.mv_f0_l155 bus1=mv_f0_n192.1.2.3 bus2=mv_f0_n633.1.2.3 phases=3 length=0.01642 units=km linecode=lc_2-3ph enabled=true
New Line.mv_f0_l156 bus1=mv_f0_n487.1.2.3 bus2=mv_f0_n480.1.2.3 phases=3 length=0.056347 units=km linecode=lc_2-3ph enabled=true
New Line.mv_f0_l157 bus1=mv_f0_n599.1.2.3 bus2=mv_f0_n220.1.2.3 phases=3 length=0.154799 units=km linecode=lc_2-3ph enabled=true
New Line.mv_f0_l158 bus1=mv_f0_n183.1.2.3 bus2=mv_f0_n199.1.2.3 phases=3 length=0.054377 units=km linecode=lc_2-3ph enabled=true
New Line.mv_f0_l159 bus1=mv_f0_n199.1.2.3 bus2=mv_f0_n192.1.2.3 phases=3 length=0.052086 units=km linecode=lc_2-3ph enabled=true
New Line.mv_f0_l160 bus1=mv_f0_n483.1.2.3 bus2=mv_f0_n495.1.2.3 phases=3 length=0.055893 units=km linecode=lc_2-3ph enabled=true
New Line.mv_f0_l161 bus1=mv_f0_n97.1.2.3 bus2=mv_f0_n581.1.2.3 phases=3 length=0.009122 units=km linecode=lc_2-3ph enabled=true
New Line.mv_f0_l162 bus1=mv_f0_n68.1.2.3 bus2=mv_f0_n97.1.2.3 phases=3 length=0.042527 units=km linecode=lc_2-3ph enabled=true
New Line.mv_f0_l163 bus1=mv_f0_n223.1.2.3 bus2=mv_f0_n604.1.2.3 phases=3 length=0.18967 units=km linecode=lc_2-3ph enabled=true
New Line.mv_f0_l164 bus1=mv_f0_n32.1.2.3 bus2=mv_f0_n610.1.2.3 phases=3 length=0.000379 units=km linecode=lc_2-3ph enabled=true
New Line.mv_f0_l165 bus1=mv_f0_n335.1.2.3 bus2=mv_f0_n635.1.2.3 phases=3 length=0.113521 units=km linecode=lc_2-3ph enabled=true
New Line.mv_f0_l166 bus1=mv_f0_n23.1.2.3 bus2=mv_f0_n335.1.2.3 phases=3 length=0.007966 units=km linecode=lc_2-3ph enabled=true
New Line.mv_f0_l167 bus1=mv_f0_n339.1.2.3 bus2=mv_f0_n528.1.2.3 phases=3 length=0.017001 units=km linecode=lc_2-3ph enabled=true
New Line.mv_f0_l168 bus1=mv_f0_n528.1.2.3 bus2=mv_f0_n356.1.2.3 phases=3 length=0.017001 units=km linecode=lc_2-3ph enabled=true
New Line.mv_f0_l169 bus1=mv_f0_n139.1.2.3 bus2=mv_f0_n352.1.2.3 phases=3 length=0.095781 units=km linecode=lc_183-3ph enabled=true
New Line.mv_f0_l170 bus1=mv_f0_n162.1.2.3 bus2=mv_f0_n526.1.2.3 phases=3 length=0.005674 units=km linecode=lc_2-3ph enabled=true
New Line.mv_f0_l171 bus1=mv_f0_n75.1.2.3 bus2=mv_f0_n81.1.2.3 phases=3 length=0.119465 units=km linecode=lc_183-3ph enabled=true
New Line.mv_f0_l172 bus1=mv_f0_n206.1.2.3 bus2=mv_f0_n196.1.2.3 phases=3 length=0.015454 units=km linecode=lc_2-3ph enabled=true
New Line.mv_f0_l173 bus1=mv_f0_n131.1.2.3 bus2=mv_f0_n130.1.2.3 phases=3 length=0.129025 units=km linecode=lc_2-3ph enabled=true
New Line.mv_f0_l174 bus1=mv_f0_n357.1.2.3 bus2=mv_f0_n211.1.2.3 phases=3 length=0.010053 units=km linecode=lc_2-3ph enabled=true
New Line.mv_f0_l175 bus1=mv_f0_n125.1.2.3 bus2=mv_f0_n131.1.2.3 phases=3 length=0.027773 units=km linecode=lc_2-3ph enabled=true
New Line.mv_f0_l176 bus1=mv_f0_n134.1.2.3 bus2=mv_f0_n132.1.2.3 phases=3 length=0.039189 units=km linecode=lc_46-3ph enabled=true
New Line.mv_f0_l177 bus1=mv_f0_n102.1.2.3 bus2=mv_f0_n138.1.2.3 phases=3 length=0.000749 units=km linecode=lc_183-3ph enabled=true
New Line.mv_f0_l178 bus1=mv_f0_n410.1.2.3 bus2=mv_f0_n188.1.2.3 phases=3 length=0.017159 units=km linecode=lc_2-3ph enabled=true
New Line.mv_f0_l179 bus1=mv_f0_n1.1.2.3 bus2=mv_f0_n427.1.2.3 phases=3 length=0.108778 units=km linecode=lc_46-3ph enabled=true
New Line.mv_f0_l180 bus1=mv_f0_n484.1.2.3 bus2=mv_f0_n109.1.2.3 phases=3 length=0.001005 units=km linecode=lc_183-3ph enabled=true
New Line.mv_f0_l181 bus1=mv_f0_n291.1.2.3 bus2=mv_f0_n376.1.2.3 phases=3 length=0.137466 units=km linecode=lc_89-3ph enabled=true
New Line.mv_f0_l182 bus1=mv_f0_n579.1.2.3 bus2=mv_f0_n385.1.2.3 phases=3 length=0.056611 units=km linecode=lc_183-3ph enabled=true
New Line.mv_f0_l183 bus1=mv_f0_n642.1.2.3 bus2=mv_f0_n629.1.2.3 phases=3 length=0.022843 units=km linecode=lc_2-3ph enabled=true
New Line.mv_f0_l184 bus1=mv_f0_n603.1.2.3 bus2=mv_f0_n588.1.2.3 phases=3 length=0.115985 units=km linecode=lc_183-3ph enabled=true
New Line.mv_f0_l185 bus1=mv_f0_n534.1.2.3 bus2=mv_f0_n544.1.2.3 phases=3 length=0.001487 units=km linecode=lc_2-3ph enabled=true
New Line.mv_f0_l186 bus1=mv_f0_n254.1.2.3 bus2=mv_f0_n630.1.2.3 phases=3 length=0.045362 units=km linecode=lc_2-3ph enabled=true
New Line.mv_f0_l187 bus1=mv_f0_n139.1.2.3 bus2=mv_f0_n123.1.2.3 phases=3 length=0.000999 units=km linecode=lc_183-3ph enabled=true
New Line.mv_f0_l188 bus1=mv_f0_n116.1.2.3 bus2=mv_f0_n303.1.2.3 phases=3 length=0.036434 units=km linecode=lc_2-3ph enabled=true
New Line.mv_f0_l189 bus1=mv_f0_n305.1.2.3 bus2=mv_f0_n568.1.2.3 phases=3 length=0.116339 units=km linecode=lc_183-3ph enabled=true
New Line.mv_f0_l190 bus1=mv_f0_n329.1.2.3 bus2=mv_f0_n491.1.2.3 phases=3 length=0.004063 units=km linecode=lc_2-3ph enabled=true
New Line.mv_f0_l191 bus1=mv_f0_n491.1.2.3 bus2=mv_f0_n339.1.2.3 phases=3 length=0.031062 units=km linecode=lc_2-3ph enabled=true
New Line.mv_f0_l192 bus1=mv_f0_n381.1.2.3 bus2=mv_f0_n486.1.2.3 phases=3 length=0.0997 units=km linecode=lc_2-3ph enabled=true
New Line.mv_f0_l193 bus1=mv_f0_n314.1.2.3 bus2=mv_f0_n305.1.2.3 phases=3 length=0.118219 units=km linecode=lc_183-3ph enabled=true
New Line.mv_f0_l194 bus1=mv_f0_n588.1.2.3 bus2=mv_f0_n314.1.2.3 phases=3 length=0.123584 units=km linecode=lc_183-3ph enabled=true
New Line.mv_f0_l195 bus1=mv_f0_n78.1.2.3 bus2=mv_f0_n201.1.2.3 phases=3 length=0.004307 units=km linecode=lc_2-3ph enabled=true
New Line.mv_f0_l196 bus1=mv_f0_n560.1.2.3 bus2=mv_f0_n548.1.2.3 phases=3 length=0.132423 units=km linecode=lc_183-3ph enabled=true
New Line.mv_f0_l197 bus1=mv_f0_n327.1.2.3 bus2=mv_f0_n509.1.2.3 phases=3 length=0.078524 units=km linecode=lc_183-3ph enabled=true
New Line.mv_f0_l198 bus1=mv_f0_n618.1.2.3 bus2=mv_f0_n313.1.2.3 phases=3 length=0.010528 units=km linecode=lc_2-3ph enabled=true
New Line.mv_f0_l199 bus1=mv_f0_n303.1.2.3 bus2=mv_f0_n135.1.2.3 phases=3 length=0.016037 units=km linecode=lc_2-3ph enabled=true
...
